
#======================================================================
# CRYSTAL DATA
#----------------------------------------------------------------------
data_VESTA_phase_1

_chemical_name_common                  'MoS2_mp-1023924_primitive'
_cell_length_a                         3.190300
_cell_length_b                         3.190300
_cell_length_c                         18.129801
_cell_angle_alpha                      90.000000
_cell_angle_beta                       90.000000
_cell_angle_gamma                      120.000000
_cell_volume                           159.803655
_space_group_name_H-M_alt              'P 1'
_space_group_IT_number                 1

loop_
_space_group_symop_operation_xyz
   'x, y, z'

loop_
   _atom_site_label
   _atom_site_occupancy
   _atom_site_fract_x
   _atom_site_fract_y
   _atom_site_fract_z
   _atom_site_adp_type
   _atom_site_B_iso_or_equiv
   _atom_site_type_symbol
   Mo1         1.0     0.000000     0.000000     0.500005    Biso  1.000000 Mo
   S1          1.0     0.333330     0.666670     0.586315    Biso  1.000000 S
   S2          1.0     0.333330     0.666670     0.413685    Biso  1.000000 S
